!-------------------------------
!--- INITIALIZATION
!-------------------------------
 &initialization_parameters

!--- NUMERICAL GRID

         nx = 255,    ny = 255,    nz = 128,    
         dx = 4.6875, dy = 4.6875, dz = 2.0,

         dz_stretch_level  = 64.0,
         dz_stretch_factor = 1.025,
         dz_max = 16.0,


!--- VELOCITY PROFILES
 
         initializing_actions = 'set_1d-model_profiles',

         ug_surface = 5.0,
         vg_surface = 0.0,

!--- TEMPERATURE
         
         !neutral = .T.,
         pt_surface = 283.0,
         pt_vertical_gradient = 6.0, 0.35,
         pt_vertical_gradient_level = 600.0, 700.0,

!--- RAYLEIGH DAMPING

         rayleigh_damping_height = 600.0,
         rayleigh_damping_factor = 0.01,
         !galilei_transformation = .T.,

!--- 1D MODEL SETUP

         mixing_length_1d = 'blackadar',      ! default
         dissipation_1d = 'detering',         ! default
         end_time_1d = 864000.0,              ! default
         dt_run_control_1d = 3600.0,  
         dt_pr_1d = 86400.0,
         damp_level_1d = 600.0,       

!--- BOUNDARY CONDITIONS

!         'dirichlet' - no-slip boundary, 'neumann' - free slip boundary

         use_surface_fluxes = .F.,

         bc_lr   = 'cyclic',
         bc_ns   = 'cyclic',

         bc_p_b  = 'neumann',
         bc_p_t  = 'dirichlet',

         bc_uv_b = 'dirichlet',
         bc_uv_t = 'neumann',

         !bc_pt_b = 'neumann',
         !surface_heatflux = 0.0,

         roughness_length = 0.0002,           ! 0.1 - default
         z0h_factor = 1.0,                    ! 1.0 - default, active if constant_flux_layer = .T.


!--- CORIOLIS FORCE
             
!         omega = 0.0,                        ! no Coriolis force

         latitude  = 54.0,
         longitude =  6.6,


!--- NUMERICS
         momentum_advec = 'ws-scheme',        ! default
         scalar_advec = 'ws-scheme',          ! default

         psolver = 'multigrid',
         !mg_cycles = 16,
         !residual_limit = 1.0E-6,
         !psolver = 'sor',
         !nsor = 100,

         /

 &wind_wave_inta_parameters

         wwinta_mode = 'sfc',
         wave_type = 'regular',
         wave_amplitude = 1.6,
         wave_number = 0.06283,
         wave_direction = 270.0,

         /

!--------------------------------
!--- RUNTIME PARAMETERS
!--------------------------------

 &runtime_parameters

         netcdf_data_format = 4,

         end_time = 72000.0,
         termination_time_needed = 200.0,

         create_disturbances = .T.,
!         dt_disturb = 300.0,
!         disturbance_energy_limit = 0.01,
            
         dt_run_control = 6.0,

!--- PROFILES

         skip_time_dopr = 0.0,
         dt_dopr = 3600.0,
         averaging_interval_pr = 3600.0,
         dt_averaging_input_pr = 6.0,

         data_output_pr = '#u', 'u*2', 'wu', 'w*u*', 'w"u"',
                          '#v', 'v*2', 'wv', 'w*v*', 'w"v"',
                          'w', 'w*2',
                          'wtheta', 'w"theta"', 'w*theta*',
                          'e', 'e*',
                          '#km','#l', 'rho',
                          'theta', 'theta*2',

!--- TIME SERIES

         dt_dots= 6.0,

!--- 3D and 2D

         skip_time_data_output = 70200.0,
         dt_data_output = 8.0,

         skip_time_data_output_av = 10000000000000.0,
         dt_data_output_av = 3600.0,
         averaging_interval = 3600.0,
         dt_averaging_input = 6.0,

         data_output    = 'u_xy', 'v_xy', 'w_xy', 'p_xy', 'theta_xy',
                          'u_yz', 'v_yz', 'w_yz', 'p_yz', 'theta_yz',
                          'u_xz', 'v_xz', 'w_xz', 'p_xz', 'theta_xz',
                          'u', 'v', 'w', 'p',

         section_xy = 0, 1, 6, 14, 44, 62, 83,
         section_xz = 128,
         section_yz = 128,

         /




