!-------------------------------
!--- INITIALIZATION
!-------------------------------
 &initialization_parameters

         initializing_actions = 'read_restart_data',

         /

 &wind_wave_inta_parameters

         wwinta_mode = 'sfc',
         wave_type = 'regular',
         wave_amplitude = 1.6,
         wave_number = 0.06283,
         wave_direction = 270.0,

         /

!--------------------------------
!--- RUNTIME PARAMETERS
!--------------------------------

 &runtime_parameters

         netcdf_data_format = 4,

         end_time = 73800.0,
         termination_time_needed = 200.0,

         create_disturbances = .T.,
!         dt_disturb = 300.0,
!         disturbance_energy_limit = 0.01,
            
         dt_run_control = 6.0,

!--- PROFILES

         skip_time_dopr = 0.0,
         dt_dopr = 3600.0,
         averaging_interval_pr = 3600.0,
         dt_averaging_input_pr = 6.0,

         data_output_pr = '#u', 'u*2', 'wu', 'w*u*', 'w"u"',
                          '#v', 'v*2', 'wv', 'w*v*', 'w"v"',
                          'w', 'w*2',
                          'wtheta', 'w"theta"', 'w*theta*',
                          'e', 'e*',
                          '#km','#l', 'rho',
                          'theta', 'theta*2',

!--- TIME SERIES

         dt_dots= 6.0,

!--- 3D and 2D

         skip_time_data_output = 70200.0,
         dt_data_output = 8.0,

         skip_time_data_output_av = 10000000000000.0,
         dt_data_output_av = 3600.0,
         averaging_interval = 3600.0,
         dt_averaging_input = 6.0,

         data_output    = 'u_xy', 'v_xy', 'w_xy', 'p_xy', 'theta_xy',
                          'u_yz', 'v_yz', 'w_yz', 'p_yz', 'theta_yz',
                          'u_xz', 'v_xz', 'w_xz', 'p_xz', 'theta_xz',
                          'u', 'v', 'w', 'p',

         section_xy = 0, 1, 6, 14, 44, 62, 83,
         section_xz = 128,
         section_yz = 128,

         /




